ipss.vstab.test/testData/psse/EQ_0907_500KV_SZ_Var_2201.raw
0,   100.00          / PSS/E-30.0    SUN, NOV 01 2009  19:53
PSS/E LOADFLOW RAW FILE
CONVERTED FROM BPA FORMAT
 10002,'GZ-HLZ      ', 220.0000,1,     0.000,     0.000,   1,   2,1.04449, -47.3304,   2
 10004,'ZQ-HLZ      ', 525.0000,1,     0.000,     0.000,   1,   4,1.01129, -40.8980,   1
 10005,'DCZQ=       ', 500.0000,1,     0.000,     0.000,   1,   4,1.06106, -41.1848,   2
 10007,'BA-HLZ      ', 525.0000,1,     0.000,     0.000,   1,   4,1.00595, -47.9243,   1
 10011,'DCHZ=       ', 500.0000,1,     0.000,     0.000,   1,   4,1.06735, -44.3588,   2
 10013,'GD01-HLZ    ', 525.0000,1,     0.000,     0.000,   1,   4,1.00289, -46.9425,   2
 10014,'LUODON50    ', 525.0000,1,     0.000,  -492.000,   1,   4,0.99220, -42.9286,   1
 10015,'MAOMIN50    ', 525.0000,1,     0.000,     0.000,   1,   4,0.99371, -31.5102,   1
 10016,'XIANLS50    ', 525.0000,1,     0.000,  -382.000,   1,   4,0.99364, -35.2758,   2
 10022,'GANGCH50    ', 525.0000,1,     0.000,     0.000,   1,   2,1.00286, -31.9848,   2
 10159,'NPS3        ',  26.0000,2,     0.000,     0.000,   1,  19,1.01500, -39.4862,   2
 10160,'NPS4        ',  26.0000,2,     0.000,     0.000,   1,  19,1.01500, -39.4862,   2
 10161,'SJA4        ',  20.0000,2,     0.000,     0.000,   1,  19,1.01500, -40.0958,   2
 10162,'SJA5        ',  20.0000,2,     0.000,     0.000,   1,  19,1.01500, -40.0958,   2
 10163,'SJB1        ',  19.0000,2,     0.000,     0.000,   1,  19,1.01500, -44.0057,   2
 10164,'SJB2        ',  19.0000,2,     0.000,     0.000,   1,  19,1.01500, -40.3850,   2
 10165,'SJC1        ',  19.0000,2,     0.000,     0.000,   1,  19,1.00500, -39.0230,   2
 10166,'SJC2        ',  19.0000,2,     0.000,     0.000,   1,  19,1.00500, -39.0477,   2
 10167,'SJC3        ',  19.0000,2,     0.000,     0.000,   1,  19,1.00500, -39.0230,   2
 10168,'PSS1        ',  18.0000,2,     0.000,     0.000,   1,  19,1.02500, -35.8169,   2
 10169,'PSS2        ',  18.0000,2,     0.000,     0.000,   1,  19,1.02500, -35.8169,   2
 10170,'PSS3        ',  18.0000,2,     0.000,     0.000,   1,  19,1.02500, -35.8169,   2
 10171,'PSS4        ',  18.0000,2,     0.000,     0.000,   1,  19,1.03800, -35.9136,   2
 10172,'PSS6        ',  18.0000,2,     0.000,     0.000,   1,  19,1.02500, -35.9031,   2
 10173,'PSS7        ',  18.0000,2,     0.000,     0.000,   1,  19,1.02500, -35.9031,   2
 10174,'PSS8        ',  18.0000,2,     0.000,     0.000,   1,  19,1.02500, -35.9031,   2
 10175,'HZX2        ',  18.0000,2,     0.000,     0.000,   1,  19,1.03500, -41.0296,   2
 10176,'ZUH3        ',  20.0000,2,     0.000,     0.000,   1,  19,1.00127, -37.3329,   2
 10177,'ZUH4        ',  20.0000,2,     0.000,     0.000,   1,  19,1.00127, -37.3329,   2
 10178,'TOG3        ',  20.0000,2,     0.000,     0.000,   1,  19,1.00000, -35.1255,   2
 10179,'TOG4        ',  20.0000,2,     0.000,     0.000,   1,  19,1.00000, -35.1255,   2
 10180,'TOG5        ',  20.0000,2,     0.000,     0.000,   1,  19,1.00000, -35.1255,   2
 10181,'LYJ1        ',  20.0000,2,     0.000,     0.000,   1,  19,1.00602, -24.2298,   2
 10182,'LYJ2        ',  20.0000,2,     0.000,     0.000,   1,  19,1.00602, -24.2298,   2
 10183,'QIAOK1      ',  22.0000,2,     0.000,     0.000,   1,  19,1.02000, -23.1484,   2
 10184,'QIAOK2      ',  22.0000,2,     0.000,     0.000,   1,  19,1.02053, -23.1518,   2
 10185,'YAX1        ',  20.0000,2,     0.000,     0.000,   1,   2,1.00800, -32.8465,   2
 10186,'HOHW1       ',  22.0000,2,     0.000,     0.000,   1,  19,1.00517, -32.7495,   2
 10187,'HOHW2       ',  22.0000,2,     0.000,     0.000,   1,  19,1.00517, -32.7495,   2
 10188,'HAIM1       ',  27.0000,2,     0.000,     0.000,   1,   2,1.02000, -27.8448,   2
 10189,'HSYB1       ',  20.0000,2,     0.000,     0.000,   1,  19,1.00463, -26.8700,   2
 10190,'HSYB2       ',  20.0000,2,     0.000,     0.000,   1,  19,1.00463, -26.8700,   2
 10192,'LINGAO=     ', 500.0000,1,     0.000,     0.000,   1,   2,1.06085, -46.3928,   2
 10193,'SHAJIAC=    ', 500.0000,1,     0.000,     0.000,   1,   2,1.05733, -46.2313,   2
 10194,'SHAJIAB=    ', 500.0000,1,     0.000,     0.000,   1,   2,1.05745, -46.2641,   2
 10195,'XUNENG1=    ', 500.0000,1,     0.000,     0.000,   1,   2,1.06360, -42.4808,   2
 10196,'XUNENG2=    ', 500.0000,1,     0.000,     0.000,   1,   2,1.06356, -42.5672,   2
 10197,'HZXUNEN=    ', 500.0000,1,     0.000,     0.000,   1,   2,1.06460, -45.2975,   2
 10198,'ZHUHAIB=    ', 500.0000,1,     0.000,     0.000,   1,   2,1.04728, -43.7374,   2
 10199,'TONGGU=     ', 500.0000,1,     0.000,     0.000,   1,   2,1.04732, -41.6088,   2
 10200,'LIYUJIA=    ', 500.0000,1,     0.000,     0.000,   1,   2,1.07022, -29.6353,   2
 10201,'QIAOKOU=    ', 500.0000,1,     0.000,  -123.000,   1,   2,1.06953, -29.6755,   2
 10202,'AOLIYOU=    ', 500.0000,1,     0.000,     0.000,   1,   2,1.05332, -31.9883,   2
 10203,'YANGXI=     ', 500.0000,1,     0.000,     0.000,   1,   2,1.05851, -38.2754,   2
 10204,'HONGHAW=    ', 500.0000,1,     0.000,     0.000,   1,   2,1.06441, -38.3847,   2
 10205,'HAIMEN=     ', 500.0000,1,     0.000,     0.000,   1,   2,1.06734, -33.6336,   2
 10206,'HESHUYB=    ', 500.0000,1,     0.000,     0.000,   1,   2,1.06148, -32.5391,   2
 10207,'ZCT=        ', 500.0000,1,     0.000,     0.000,   1,   2,1.05212, -47.5969,   2
 10208,'ZENGCHE=    ', 500.0000,1,     0.000,     0.000,   1,   2,1.05057, -46.5257,   2
 10209,'GUANGNA=    ', 500.0000,1,     0.000,     0.000,   1,   2,1.05276, -47.7063,   2
 10210,'HUADU=      ', 500.0000,1,     0.000,  -246.000,   1,   2,1.05416, -42.6522,   2
 10211,'DCSUID=     ', 500.0000,1,     0.000,     0.000,   1,   4,1.05304, -46.9425,   2
 10212,'XIANLS=     ', 500.0000,1,     0.000,  -198.000,   1,   2,1.04386, -35.5091,   2
 10213,'LUODONG=    ', 500.0000,1,     0.000,     0.000,   1,   2,1.04321, -43.2912,   2
 10214,'XIJIANG=    ', 500.0000,1,     0.000,     0.000,   1,   2,1.05044, -43.5841,   2
 10215,'SHUNDE=     ', 500.0000,1,     0.000,     0.000,   1,   2,1.04638, -46.2140,   2
 10216,'YANDU=      ', 500.0000,1,     0.000,     0.000,   1,   2,1.06067, -41.3284,   2
 10217,'DGT=        ', 500.0000,1,     0.000,     0.000,   1,   2,1.05905, -45.9403,   2
 10218,'DONGGUA=    ', 500.0000,1,     0.000,     0.000,   1,   2,1.06114, -46.8694,   2
 10219,'HENGLI=     ', 500.0000,1,     0.000,     0.000,   1,   2,1.05720, -46.5400,   2
 10220,'GUANCHE=    ', 500.0000,1,     0.000,     0.000,   1,   2,1.04842, -49.6866,   2
 10221,'HUIZHOU=    ', 500.0000,1,     0.000,     0.000,   1,   2,1.06275, -44.3930,   2
 10222,'BOLUO=      ', 500.0000,1,     0.000,     0.000,   1,   2,1.06563, -44.5948,   2
 10223,'SHANTOU=    ', 500.0000,1,     0.000,     0.000,   1,   2,1.06491, -34.9024,   2
 10224,'MAOHU=      ', 500.0000,1,     0.000,     0.000,   1,   2,1.06508, -39.1452,   2
 10225,'JIAYING=    ', 500.0000,1,     0.000,  -198.000,   1,   2,1.06120, -32.8684,   2
 10226,'RONGJIA=    ', 500.0000,1,     0.000,  -123.000,   1,   2,1.06415, -35.4253,   2
 10227,'QUJIANG=    ', 500.0000,1,     0.000,  -297.000,   1,   2,1.05027, -38.3646,   2
 10228,'JIANGME=    ', 500.0000,1,     0.000,     0.000,   1,   2,1.04752, -44.8454,   2
 10229,'DIELING=    ', 500.0000,1,     0.000,  -198.000,   1,   2,1.05421, -39.3110,   2
 10230,'MAOMING=    ', 500.0000,1,     0.000,  -222.000,   1,   2,1.04405, -31.7362,   2
 10231,'GANGCHE=    ', 500.0000,1,     0.000,     0.000,   1,   2,1.05280, -31.9848,   2
 10232,'XIANGSH=    ', 500.0000,1,     0.000,     0.000,   1,   2,1.04315, -46.0182,   2
 10233,'BEIJIAO=    ', 500.0000,1,     0.000,     0.000,   1,   2,1.05089, -44.2048,   2
 10234,'BEIJIAO     ', 220.0000,1,     0.000,     0.000,   1,   2,1.04428, -47.5044,   2
 10235,'BJ2         ', 220.0000,1,     0.000,     0.000,   1,   2,0.99992, -47.4671,   2
 10236,'BJ3         ', 220.0000,1,     0.000,     0.000,   1,   2,0.99988, -47.4720,   2
 10237,'BJ32        ',  34.5000,1,     0.000,    80.000,   1,   2,1.04799, -47.5094,   2
 10238,'BJ33        ',  34.5000,1,     0.000,    80.000,   1,   2,1.04782, -47.5143,   2
 10239,'ZAY1        ',  20.0000,2,     0.000,     0.000,   1,  20,1.01000, -41.6907,   2
 10240,'ZAY2        ',  20.0000,2,     0.000,     0.000,   1,  20,1.01000, -41.6907,   2
 10241,'ZHAOYANG    ', 220.0000,1,     0.000,     0.000,   1,  21,1.06770, -46.5334,   2
 10242,'QIANFAN     ', 220.0000,1,     0.000,     0.000,   1,  21,1.06696, -46.6251,   2
 10243,'QIUCHANG    ', 220.0000,1,     0.000,     0.000,   1,  21,1.05926, -47.4469,   2
 10244,'HUIZHOU     ', 220.0000,1,     0.000,     0.000,   1,   2,1.05811, -47.3013,   2
 10245,'HZ1         ', 220.0000,1,     0.000,     0.000,   1,   2,1.01284, -47.2713,   2
 10246,'HZ2         ', 220.0000,1,     0.000,     0.000,   1,   2,1.01284, -47.2713,   2
 10247,'HZ31        ',  34.5000,1,     0.000,    40.000,   1,   2,1.03651, -47.2887,   2
 10248,'HZ32        ',  34.5000,1,     0.000,    40.000,   1,   2,1.03651, -47.2887,   2
 10249,'HZ3         ', 220.0000,1,     0.000,     0.000,   1,   2,1.01284, -47.2713,   2
 10250,'HZ33        ',  34.5000,1,     0.000,    40.000,   1,   2,1.03651, -47.2887,   2
 10251,'HUP5        ',  18.0000,2,     0.000,     0.000,   1,  20,1.01500, -48.5806,   2
 10252,'HUP6        ',  18.0000,2,     0.000,     0.000,   1,  20,1.01500, -48.5806,   2
 10253,'HUANGPUB    ', 220.0000,1,     0.000,     0.000,   1,  21,1.05193, -53.8663,   2
 10254,'BISHAN      ', 220.0000,1,     0.000,     0.000,   1,  21,1.03944, -54.9481,   2
 10255,'TANGXIA     ', 220.0000,1,     0.000,     0.000,   1,  21,1.03854, -54.6231,   2
 10256,'ZENGCHEA    ', 220.0000,1,     0.000,     0.000,   1,   2,1.04167, -52.3904,   2
 10257,'ZENGCHEN    ', 220.0000,1,     0.000,     0.000,   1,   2,1.02209, -53.2503,   2
 10258,'ZC1         ', 220.0000,1,     0.000,     0.000,   1,   2,1.01070, -52.3263,   2
 10259,'ZC2         ', 220.0000,1,     0.000,     0.000,   1,   2,0.99201, -53.1820,   2
 10260,'ZC3         ', 220.0000,1,     0.000,     0.000,   1,   2,0.99201, -53.1820,   2
 10261,'ZC31        ',  34.5000,1,     0.000,    80.000,   1,   2,1.05867, -52.3685,   2
 10262,'ZC32        ',  34.5000,1,     0.000,    80.000,   1,   2,1.03910, -53.2243,   2
 10263,'ZC33        ',  34.5000,1,     0.000,    80.000,   1,   2,1.03910, -53.2243,   2
 10264,'ZUJ1        ',  20.0000,2,     0.000,     0.000,   1,  20,1.01000, -42.9099,   2
 10265,'ZUJ2        ',  20.0000,2,     0.000,     0.000,   1,  20,1.01000, -42.9099,   2
 10266,'ZUJ3        ',  20.0000,2,     0.000,     0.000,   1,  20,1.01000, -43.2478,   2
 10267,'ZUJ4        ',  20.0000,2,     0.000,     0.000,   1,  20,1.01000, -43.2478,   2
 10268,'ZHUJIANG    ', 220.0000,1,     0.000,     0.000,   1,  21,1.05873, -49.4498,   2
 10269,'GUANGNAA    ', 220.0000,1,     0.000,     0.000,   1,   2,1.03862, -51.1920,   2
 10270,'GN1         ', 220.0000,1,     0.000,     0.000,   1,   2,1.00785, -51.1483,   2
 10271,'GN31        ',  34.5000,1,     0.000,    60.000,   1,   2,1.03342, -51.1681,   2
 10272,'GUANGNAB    ', 220.0000,1,     0.000,     0.000,   1,   2,1.04250, -53.4421,   2
 10273,'GN3         ', 220.0000,1,     0.000,     0.000,   1,   2,1.01174, -53.3675,   2
 10274,'GN33        ',  34.5000,1,     0.000,    60.000,   1,   2,1.03690, -53.3868,   2
 10275,'GN4         ', 220.0000,1,     0.000,     0.000,   1,   2,1.01174, -53.3675,   2
 10276,'GN34        ',  34.5000,1,     0.000,    60.000,   1,   2,1.03690, -53.3868,   2
 10277,'ZHN1        ',  19.0000,2,     0.000,     0.000,   1,  20,1.00000, -42.9775,   2
 10278,'ZHN2        ',  19.0000,2,     0.000,     0.000,   1,  20,1.00000, -42.9775,   2
 10279,'ZHANNECH    ', 220.0000,1,     0.000,     0.000,   1,  21,1.05628, -49.0406,   2
 10280,'HUQIAO      ', 220.0000,1,     0.000,     0.000,   1,  21,1.05400, -49.3815,   2
 10281,'PANYU       ', 220.0000,1,     0.000,     0.000,   1,  21,1.03939, -51.1884,   2
 10282,'HEY8        ',  20.0000,2,     0.000,     0.000,   1,  20,0.99766, -46.9065,   2
 10283,'HEY9        ',  20.0000,2,     0.000,     0.000,   1,  20,1.00000, -46.9212,   2
 10284,'HENGYUND    ', 220.0000,1,     0.000,     0.000,   1,  21,1.03907, -52.2526,   2
 10285,'KAIYUANB    ', 220.0000,1,     0.000,     0.000,   1,  21,1.03517, -52.5787,   2
 10286,'HUAPU       ', 220.0000,1,     0.000,     0.000,   1,  21,1.02363, -53.4368,   2
 10287,'DES1        ',  20.0000,2,     0.000,     0.000,   1,  20,0.99099, -46.1671,   2
 10288,'DES2        ',  20.0000,2,     0.000,     0.000,   1,  20,0.99099, -46.1671,   2
 10289,'DESHENG     ', 220.0000,1,     0.000,     0.000,   1,  21,1.03531, -51.6534,   2
 10290,'XUSHENG     ', 220.0000,1,     0.000,     0.000,   1,  21,1.03256, -51.9184,   2
 10291,'SHUNDE      ', 220.0000,1,     0.000,     0.000,   1,   2,1.03032, -51.3195,   2
 10292,'SD2         ', 220.0000,1,     0.000,     0.000,   1,   2,1.00007, -51.2625,   2
 10293,'SD3         ', 220.0000,1,     0.000,     0.000,   1,   2,1.00007, -51.2624,   2
 10294,'SD32        ',  34.5000,1,     0.000,    50.000,   1,   2,1.01996, -51.2786,   2
 10295,'SD33        ',  34.5000,1,     0.000,    50.000,   1,   2,1.02002, -51.2785,   2
 10296,'HEM3        ',  19.0000,2,     0.000,     0.000,   1,  20,0.96869, -48.7968,   2
 10297,'HENGMENB    ', 220.0000,1,     0.000,     0.000,   1,  21,1.01612, -54.1825,   2
 10298,'QILE        ', 220.0000,1,     0.000,     0.000,   1,  21,1.00454, -55.3946,   2
 10299,'XIANGSHB    ', 220.0000,1,     0.000,     0.000,   1,   2,1.01467, -53.7004,   2
 10300,'XIANGSHA    ', 220.0000,1,     0.000,     0.000,   1,   2,1.02675, -53.4476,   2
 10301,'XS1         ', 220.0000,1,     0.000,     0.000,   1,   2,0.98349, -53.3521,   2
 10302,'XS2         ', 220.0000,1,     0.000,     0.000,   1,   2,0.97210, -53.6038,   2
 10303,'XS3         ', 220.0000,1,     0.000,     0.000,   1,   2,0.97208, -53.6062,   2
 10304,'XS31        ',  34.5000,1,     0.000,   100.000,   1,   2,1.02586, -53.3850,   2
 10305,'XS32        ',  34.5000,1,     0.000,   100.000,   1,   2,1.01388, -53.6366,   2
 10306,'XS33        ',  34.5000,1,     0.000,   100.000,   1,   2,1.01365, -53.6390,   2
 10307,'ZUH1        ',  22.0000,2,     0.000,     0.000,   1,  20,0.98000, -46.2991,   2
 10308,'ZUH2        ',  22.0000,2,     0.000,     0.000,   1,  20,0.98000, -46.2991,   2
 10309,'ZHUCHANG    ', 220.0000,1,     0.000,     0.000,   1,  21,1.01714, -53.5462,   2
 10310,'DOUMEN      ', 220.0000,1,     0.000,     0.000,   1,  21,0.99454, -56.1141,   2
 10311,'SANXIANG    ', 220.0000,1,     0.000,     0.000,   1,  21,0.98575, -57.2858,   2
 10312,'TOG1        ',  20.0000,2,     0.000,     0.000,   1,  20,1.00000, -35.6073,   2
 10313,'TOG2        ',  20.0000,2,     0.000,     0.000,   1,  20,1.00000, -35.6073,   2
 10314,'TONGGUCH    ', 220.0000,1,     0.000,     0.000,   1,  21,1.05990, -42.0575,   2
 10315,'NENGDA      ', 220.0000,1,     0.000,     0.000,   1,  21,1.02711, -47.4872,   2
 10316,'XINHUI      ', 220.0000,1,     0.000,     0.000,   1,  21,1.01610, -49.3077,   2
 10317,'JIANGMEN    ', 220.0000,1,     0.000,     0.000,   1,   2,1.01697, -49.2269,   2
 10318,'JM1         ', 220.0000,1,     0.000,     0.000,   1,   2,1.02477, -49.1960,   2
 10319,'JM2         ', 220.0000,1,     0.000,     0.000,   1,   2,1.02477, -49.1960,   2
 10320,'JM31        ',  34.5000,1,     0.000,    80.000,   1,   2,1.07867, -49.2385,   2
 10321,'JM32        ',  34.5000,1,     0.000,    80.000,   1,   2,1.07867, -49.2385,   2
 10322,'SAG10       ',  20.0000,2,     0.000,     0.000,   1,  20,1.00517, -35.8685,   2
 10323,'SAG11       ',  20.0000,2,     0.000,     0.000,   1,  20,1.00517, -35.8685,   2
 10324,'SHAOB       ', 220.0000,1,     0.000,     0.000,   1,  21,1.07057, -41.0451,   2
 10325,'QUJIANG     ', 220.0000,1,     0.000,     0.000,   1,   2,1.06864, -41.2698,   2
 10326,'QJ1         ', 220.0000,1,     0.000,     0.000,   1,   2,0.99663, -41.2348,   2
 10327,'QJ2         ', 220.0000,1,     0.000,     0.000,   1,   2,0.99646, -41.2352,   2
 10328,'QJ31        ',  34.5000,1,     0.000,     0.000,   1,   2,0.99663, -41.2348,   2
 10329,'QJ32        ',  34.5000,1,     0.000,     0.000,   1,   2,0.99646, -41.2352,   2
 10330,'YUL1        ',  13.8000,2,     0.000,     0.000,   1,  20,0.99000, -33.3942,   2
 10331,'YUL2        ',  13.8000,2,     0.000,     0.000,   1,  20,0.99000, -33.3942,   2
 10332,'YUELIAN     ', 220.0000,1,     0.000,     0.000,   1,  21,1.07375, -39.0558,   2
 10333,'XIANLS      ', 220.0000,1,     0.000,     0.000,   1,   2,1.07667, -39.2315,   2
 10334,'XLS2        ', 220.0000,1,     0.000,     0.000,   1,   2,1.04125, -39.1973,   2
 10335,'XLS32       ',  34.5000,1,     0.000,   180.000,   1,   2,1.16232, -39.3780,   2
 10336,'LUOY3       ',  13.8000,2,     0.000,     0.000,   1,  20,1.00000, -38.5779,   2
 10337,'LUOCHANG    ', 220.0000,1,     0.000,     0.000,   1,  21,1.06170, -43.5636,   2
 10338,'ANFENG      ', 220.0000,1,     0.000,     0.000,   1,  21,1.06567, -41.2584,   2
 10339,'MAM5        ',  15.8000,2,     0.000,     0.000,   1,  20,0.97000, -26.9747,   2
 10340,'MAM6        ',  20.0000,2,     0.000,     0.000,   1,  20,0.97000, -27.0064,   2
 10341,'MAOCHANG    ', 220.0000,1,     0.000,     0.000,   1,  21,1.03126, -33.2641,   2
 10342,'DIELING     ', 220.0000,1,     0.000,     0.000,   1,   2,1.03083, -41.5914,   2
 10343,'DL2         ', 220.0000,1,     0.000,     0.000,   1,   2,0.99960, -41.5677,   2
 10344,'DL32        ',  34.5000,1,     0.000,     0.000,   1,   2,0.99960, -41.5677,   2
 10345,'DL3         ', 220.0000,1,     0.000,     0.000,   1,   2,0.99960, -41.5677,   2
 10346,'DL33        ',  34.5000,1,     0.000,     0.000,   1,   2,0.99960, -41.5677,   2
 10347,'ZAJ1        ',  20.0000,2,     0.000,     0.000,   1,  20,0.98000, -26.1793,   2
 10348,'ZAJ2        ',  20.0000,2,     0.000,     0.000,   1,  20,0.98000, -26.1793,   2
 10349,'ZAJ3        ',  20.0000,2,     0.000,     0.000,   1,  20,0.98000, -26.1793,   2
...
0 / END OF BUS DATA, BEGIN LOAD DATA
 10002,'1 ',1,   1,   2, -1656.400,  -114.900,     0.000,     0.000,     0.000,     0.000,   2
 10004,'1 ',1,   1,   4, -2820.000,  -429.600,     0.000,     0.000,     0.000,     0.000,   1
 10007,'1 ',1,   1,   4, -2781.300,  -408.800,     0.000,     0.000,     0.000,     0.000,   1
 10022,'1 ',1,   1,   2,     0.000,  -104.000,     0.000,     0.000,     0.000,     0.000,   2
 10159,'1 ',1,   1,  19,    35.000,    20.000,     0.000,     0.000,     0.000,     0.000,   2
 10160,'1 ',1,   1,  19,    35.000,    20.000,     0.000,     0.000,     0.000,     0.000,   2
 10161,'1 ',1,   1,  19,    15.000,     8.000,     0.000,     0.000,     0.000,     0.000,   2
 10162,'1 ',1,   1,  19,    15.000,     8.000,     0.000,     0.000,     0.000,     0.000,   2
 10163,'1 ',1,   1,  19,    15.000,     7.000,     0.000,     0.000,     0.000,     0.000,   2
 10164,'1 ',1,   1,  19,    15.000,     7.000,     0.000,     0.000,     0.000,     0.000,   2
 10165,'1 ',1,   1,  19,    28.000,    15.000,     0.000,     0.000,     0.000,     0.000,   2
 10166,'1 ',1,   1,  19,    28.000,    15.000,     0.000,     0.000,     0.000,     0.000,   2
 10167,'1 ',1,   1,  19,    28.000,    15.000,     0.000,     0.000,     0.000,     0.000,   2
 10168,'1 ',1,   1,  19,    12.000,     8.000,     0.000,     0.000,     0.000,     0.000,   2
 10169,'1 ',1,   1,  19,    12.000,     8.000,     0.000,     0.000,     0.000,     0.000,   2
 10170,'1 ',1,   1,  19,    12.000,     8.000,     0.000,     0.000,     0.000,     0.000,   2
 10171,'1 ',1,   1,  19,    12.000,     8.000,     0.000,     0.000,     0.000,     0.000,   2
 10172,'1 ',1,   1,  19,    12.000,     8.000,     0.000,     0.000,     0.000,     0.000,   2
 10173,'1 ',1,   1,  19,    12.000,     8.000,     0.000,     0.000,     0.000,     0.000,   2
 10174,'1 ',1,   1,  19,    12.000,     8.000,     0.000,     0.000,     0.000,     0.000,   2
 10175,'1 ',1,   1,  19,    12.000,     8.000,     0.000,     0.000,     0.000,     0.000,   2
 10176,'1 ',1,   1,  19,    30.000,    18.000,     0.000,     0.000,     0.000,     0.000,   2
 10177,'1 ',1,   1,  19,    30.000,    18.000,     0.000,     0.000,     0.000,     0.000,   2
 10178,'1 ',1,   1,  19,    30.000,    18.000,     0.000,     0.000,     0.000,     0.000,   2
 10179,'1 ',1,   1,  19,    30.000,    18.000,     0.000,     0.000,     0.000,     0.000,   2
 10180,'1 ',1,   1,  19,    30.000,    18.000,     0.000,     0.000,     0.000,     0.000,   2
 10181,'1 ',1,   1,  19,    15.000,     8.000,     0.000,     0.000,     0.000,     0.000,   2
 10182,'1 ',1,   1,  19,    15.000,     8.000,     0.000,     0.000,     0.000,     0.000,   2
 10183,'1 ',1,   1,  19,    30.000,    18.000,     0.000,     0.000,     0.000,     0.000,   2
 10184,'1 ',1,   1,  19,    30.000,    18.000,     0.000,     0.000,     0.000,     0.000,   2
 10185,'1 ',1,   1,   2,    36.000,    10.800,     0.000,     0.000,     0.000,     0.000,   2
 10186,'1 ',1,   1,  19,    30.000,    18.000,     0.000,     0.000,     0.000,     0.000,   2
 10187,'1 ',1,   1,  19,    30.000,    18.000,     0.000,     0.000,     0.000,     0.000,   2
 10188,'1 ',1,   1,   2,    60.000,    30.000,     0.000,     0.000,     0.000,     0.000,   2
 10189,'1 ',1,   1,  19,    15.000,     8.000,     0.000,     0.000,     0.000,     0.000,   2
 10190,'1 ',1,   1,  19,    15.000,     8.000,     0.000,     0.000,     0.000,     0.000,   2
 10194,'1 ',1,   1,   2,   281.700,    42.200,     0.000,     0.000,     0.000,     0.000,   2
 10210,'1 ',1,   1,   2,   846.600,     1.200,     0.000,     0.000,     0.000,     0.000,   2
 10213,'1 ',1,   1,   2,  2511.000,   130.600,     0.000,     0.000,     0.000,     0.000,   2
 10214,'1 ',1,   1,   2,  1050.000,   -19.200,     0.000,     0.000,     0.000,     0.000,   2
 10218,'1 ',1,   1,   2,  1856.000,   -65.700,     0.000,     0.000,     0.000,     0.000,   2
 10219,'1 ',1,   1,   2,  1974.000,   523.200,     0.000,     0.000,     0.000,     0.000,   2
 10220,'1 ',1,   1,   2,  2699.000,   158.000,     0.000,     0.000,     0.000,     0.000,   2
 10224,'1 ',1,   1,   2,   327.800,    76.000,     0.000,     0.000,     0.000,     0.000,   2
 10226,'1 ',1,   1,   2,   177.000,   117.100,     0.000,     0.000,     0.000,     0.000,   2
 10230,'1 ',1,   1,   2,   288.000,    40.800,     0.000,     0.000,     0.000,     0.000,   2
 10233,'1 ',1,   1,   2,   571.400,    24.100,     0.000,     0.000,     0.000,     0.000,   2
 10234,'1 ',1,   1,   2,  2301.000,   267.500,     0.000,     0.000,     0.000,     0.000,   2
 10239,'1 ',1,   1,  20,    10.000,     6.000,     0.000,     0.000,     0.000,     0.000,   2
 10240,'1 ',1,   1,  20,    10.000,     6.000,     0.000,     0.000,     0.000,     0.000,   2
 10241,'1 ',1,   1,  21,   266.600,   128.200,     0.000,     0.000,     0.000,     0.000,   2
 10242,'1 ',1,   1,  21,   119.700,    30.800,     0.000,     0.000,     0.000,     0.000,   2
 10243,'1 ',1,   1,  21,   247.900,    47.000,     0.000,     0.000,     0.000,     0.000,   2
 10244,'1 ',1,   1,   2,   714.400,   133.200,     0.000,     0.000,     0.000,     0.000,   2
 10251,'1 ',1,   1,  20,    15.000,     8.000,     0.000,     0.000,     0.000,     0.000,   2
 10252,'1 ',1,   1,  20,    15.000,     8.000,     0.000,     0.000,     0.000,     0.000,   2
 10253,'1 ',1,   1,  21,   100.600,   124.800,     0.000,     0.000,     0.000,     0.000,   2
 10254,'1 ',1,   1,  21,   468.300,   104.600,     0.000,     0.000,     0.000,     0.000,   2
 10255,'1 ',1,   1,  21,   440.700,    28.000,     0.000,     0.000,     0.000,     0.000,   2
 10257,'1 ',1,   1,   2,  1138.000,   239.500,     0.000,     0.000,     0.000,     0.000,   2
 10264,'1 ',1,   1,  20,    15.000,     8.000,     0.000,     0.000,     0.000,     0.000,   2
 10265,'1 ',1,   1,  20,    15.000,     8.000,     0.000,     0.000,     0.000,     0.000,   2
 10266,'1 ',1,   1,  20,    15.000,     8.000,     0.000,     0.000,     0.000,     0.000,   2
 10267,'1 ',1,   1,  20,    15.000,     8.000,     0.000,     0.000,     0.000,     0.000,   2
 10268,'1 ',1,   1,  21,   791.800,   216.000,     0.000,     0.000,     0.000,     0.000,   2
 10269,'1 ',1,   1,   2,   705.200,   187.800,     0.000,     0.000,     0.000,     0.000,   2
 10272,'1 ',1,   1,   2,  1245.000,   -55.200,     0.000,     0.000,     0.000,     0.000,   2
 10277,'1 ',1,   1,  20,    10.000,     6.000,     0.000,     0.000,     0.000,     0.000,   2
 10278,'1 ',1,   1,  20,    10.000,     6.000,     0.000,     0.000,     0.000,     0.000,   2
 10280,'1 ',1,   1,  21,   171.300,    15.700,     0.000,     0.000,     0.000,     0.000,   2
 10281,'1 ',1,   1,  21,   530.700,   158.300,     0.000,     0.000,     0.000,     0.000,   2
 10282,'1 ',1,   1,  20,    15.000,     8.000,     0.000,     0.000,     0.000,     0.000,   2
 10283,'1 ',1,   1,  20,    15.000,     8.000,     0.000,     0.000,     0.000,     0.000,   2
 10285,'1 ',1,   1,  21,    92.500,    18.300,     0.000,     0.000,     0.000,     0.000,   2
 10286,'1 ',1,   1,  21,   463.000,   142.500,     0.000,     0.000,     0.000,     0.000,   2
 10287,'1 ',1,   1,  20,    15.000,     8.000,     0.000,     0.000,     0.000,     0.000,   2
 10288,'1 ',1,   1,  20,    15.000,     8.000,     0.000,     0.000,     0.000,     0.000,   2
 10290,'1 ',1,   1,  21,   685.600,   146.800,     0.000,     0.000,     0.000,     0.000,   2
 10291,'1 ',1,   1,   2,   742.100,    91.300,     0.000,     0.000,     0.000,     0.000,   2
 10296,'1 ',1,   1,  20,    10.000,     6.000,     0.000,     0.000,     0.000,     0.000,   2
 10298,'1 ',1,   1,  21,   259.500,    84.600,     0.000,     0.000,     0.000,     0.000,   2
 10299,'1 ',1,   1,   2,  1187.000,   257.800,     0.000,     0.000,     0.000,     0.000,   2
 10300,'1 ',1,   1,   2,   776.500,   108.900,     0.000,     0.000,     0.000,     0.000,   2
 10307,'1 ',1,   1,  20,    35.000,    20.000,     0.000,     0.000,     0.000,     0.000,   2
 10308,'1 ',1,   1,  20,    35.000,    20.000,     0.000,     0.000,     0.000,     0.000,   2
 10309,'1 ',1,   1,  21,   707.800,    75.000,     0.000,     0.000,     0.000,     0.000,   2
 10310,'1 ',1,   1,  21,   324.900,   117.300,     0.000,     0.000,     0.000,     0.000,   2
 10311,'1 ',1,   1,  21,   598.200,   163.600,     0.000,     0.000,     0.000,     0.000,   2
 10312,'1 ',1,   1,  20,    30.000,    18.000,     0.000,     0.000,     0.000,     0.000,   2
 10313,'1 ',1,   1,  20,    30.000,    18.000,     0.000,     0.000,     0.000,     0.000,   2
 10314,'1 ',1,   1,  21,   836.800,   230.400,     0.000,     0.000,     0.000,     0.000,   2
 10315,'1 ',1,   1,  21,    74.100,    11.800,     0.000,     0.000,     0.000,     0.000,   2
 10316,'1 ',1,   1,  21,   162.200,    39.100,     0.000,     0.000,     0.000,     0.000,   2
 10317,'1 ',1,   1,   2,   749.700,   359.800,     0.000,     0.000,     0.000,     0.000,   2
 10322,'1 ',1,   1,  20,    15.000,     8.000,     0.000,     0.000,     0.000,     0.000,   2
 10323,'1 ',1,   1,  20,    15.000,     8.000,     0.000,     0.000,     0.000,     0.000,   2
 10325,'1 ',1,   1,   2,  1006.000,   159.900,     0.000,     0.000,     0.000,     0.000,   2
 10330,'1 ',1,   1,  20,     9.000,     5.000,     0.000,     0.000,     0.000,     0.000,   2
 10331,'1 ',1,   1,  20,     9.000,     5.000,     0.000,     0.000,     0.000,     0.000,   2
 10333,'1 ',1,   1,   2,   313.000,   -11.600,     0.000,     0.000,     0.000,     0.000,   2
 10336,'1 ',1,   1,  20,     8.400,     3.000,     0.000,     0.000,     0.000,     0.000,   2
 10337,'1 ',1,   1,  21,   297.800,   -11.800,     0.000,     0.000,     0.000,     0.000,   2
 10338,'1 ',1,   1,  21,    23.100,     5.800,     0.000,     0.000,     0.000,     0.000,   2
 10339,'1 ',1,   1,  20,    12.000,     7.000,     0.000,     0.000,     0.000,     0.000,   2
 10340,'1 ',1,   1,  20,    15.000,     8.000,     0.000,     0.000,     0.000,     0.000,   2
 10341,'1 ',1,   1,  21,   266.100,    91.700,     0.000,     0.000,     0.000,     0.000,   2
 10342,'1 ',1,   1,   2,   579.900,    22.400,     0.000,     0.000,     0.000,     0.000,   2
 10347,'1 ',1,   1,  20,    15.000,     8.000,     0.000,     0.000,     0.000,     0.000,   2
 10348,'1 ',1,   1,  20,    15.000,     8.000,     0.000,     0.000,     0.000,     0.000,   2
 10349,'1 ',1,   1,  20,    15.000,     8.000,     0.000,     0.000,     0.000,     0.000,   2
 10350,'1 ',1,   1,  20,    15.000,     8.000,     0.000,     0.000,     0.000,     0.000,   2
 10351,'1 ',1,   1,  21,   623.300,    65.600,     0.000,     0.000,     0.000,     0.000,   2
 10352,'1 ',1,   1,  21,   150.100,    13.500,     0.000,     0.000,     0.000,     0.000,   2
 10353,'1 ',1,   1,  21,    63.900,    11.300,     0.000,     0.000,     0.000,     0.000,   2
 10354,'1 ',1,   1,   2,   196.200,    54.600,     0.000,     0.000,     0.000,     0.000,   2
 10357,'1 ',1,   1,  20,     8.000,     4.000,     0.000,     0.000,     0.000,     0.000,   2
 10358,'1 ',1,   1,  20,     8.000,     4.000,     0.000,     0.000,     0.000,     0.000,   2
 10359,'1 ',1,   1,  21,   106.700,     7.900,     0.000,     0.000,     0.000,     0.000,   2
 10360,'1 ',1,   1,  21,    27.750,    11.100,     0.000,     0.000,     0.000,     0.000,   2
 10361,'1 ',1,   1,  21,    27.750,    11.100,     0.000,     0.000,     0.000,     0.000,   2
 10362,'1 ',1,   1,  21,    27.750,    11.100,     0.000,     0.000,     0.000,     0.000,   2
 10363,'1 ',1,   1,  21,    27.750,    11.100,     0.000,     0.000,     0.000,     0.000,   2
 10364,'1 ',1,   1,  21,   148.300,    47.200,     0.000,     0.000,     0.000,     0.000,   2
 10365,'1 ',1,   1,   2,  1001.000,    40.000,     0.000,     0.000,     0.000,     0.000,   2
 10370,'1 ',1,   1,  20,    15.000,     8.000,     0.000,     0.000,     0.000,     0.000,   2
 10371,'1 ',1,   1,  20,    15.000,     8.000,     0.000,     0.000,     0.000,     0.000,   2
 10372,'1 ',1,   1,  20,    30.000,    18.000,     0.000,     0.000,     0.000,     0.000,   2
 10373,'1 ',1,   1,  21,   407.000,   138.600,     0.000,     0.000,     0.000,     0.000,   2
 10374,'1 ',1,   1,  21,   350.400,   123.400,     0.000,     0.000,     0.000,     0.000,   2
 10375,'1 ',1,   1,  21,   185.400,    61.600,     0.000,     0.000,     0.000,     0.000,   2
 10376,'1 ',1,   1,   2,   221.100,    27.600,     0.000,     0.000,     0.000,     0.000,   2
 10383,'1 ',1,   1,  20,    30.000,    18.000,     0.000,     0.000,     0.000,     0.000,   2
 10384,'1 ',1,   1,  20,    30.000,    18.000,     0.000,     0.000,     0.000,     0.000,   2
 10385,'1 ',1,   1,  21,   443.800,   119.400,     0.000,     0.000,     0.000,     0.000,   2
 10386,'1 ',1,   1,  21,   337.800,    89.400,     0.000,     0.000,     0.000,     0.000,   2
 10387,'1 ',1,   1,  21,   231.300,    53.000,     0.000,     0.000,     0.000,     0.000,   2
 10388,'1 ',1,   1,  21,   146.200,    44.500,     0.000,     0.000,     0.000,     0.000,   2
 10389,'1 ',1,   1,  20,    30.000,    18.000,     0.000,     0.000,     0.000,     0.000,   2
 10390,'1 ',1,   1,  20,    30.000,    18.000,     0.000,     0.000,     0.000,     0.000,   2
 10391,'1 ',1,   1,  21,   438.400,   114.800,     0.000,     0.000,     0.000,     0.000,   2
 10392,'1 ',1,   1,  21,   395.200,    94.100,     0.000,     0.000,     0.000,     0.000,   2
 10393,'1 ',1,   1,  21,   148.400,    57.500,     0.000,     0.000,     0.000,     0.000,   2
 10394,'1 ',1,   1,  20,     9.000,     6.000,     0.000,     0.000,     0.000,     0.000,   2
 10395,'1 ',1,   1,  20,     9.000,     6.000,     0.000,     0.000,     0.000,     0.000,   2
 10396,'1 ',1,   1,  20,     8.400,     5.000,     0.000,     0.000,     0.000,     0.000,   2
 10397,'1 ',1,   1,  20,     8.400,     5.000,     0.000,     0.000,     0.000,     0.000,   2
 10398,'1 ',1,   1,  21,   230.500,    17.200,     0.000,     0.000,     0.000,     0.000,   2
 10399,'1 ',1,   1,  21,    18.500,     0.000,     0.000,     0.000,     0.000,     0.000,   2
 10401,'1 ',1,   1,  21,   192.300,   -11.600,     0.000,     0.000,     0.000,     0.000,   2
 10402,'1 ',1,   1,   2,  -309.000,   -82.500,     0.000,     0.000,     0.000,     0.000,   2
 10405,'1 ',1,   1,  20,    30.000,    18.000,     0.000,     0.000,     0.000,     0.000,   2
 10407,'1 ',1,   1,  21,    55.600,     4.800,     0.000,     0.000,     0.000,     0.000,   2
 10408,'1 ',1,   1,  21,    82.600,    22.500,     0.000,     0.000,     0.000,     0.000,   2
 10409,'1 ',1,   1,   2,   705.200,    93.000,     0.000,     0.000,     0.000,     0.000,   2
 10419,'1 ',1,   1,  21,   205.100,    56.900,     0.000,     0.000,     0.000,     0.000,   2
 10596,'1 ',1,   1,  20,    15.000,     8.000,     0.000,     0.000,     0.000,     0.000,   2
 10597,'1 ',1,   1,  20,    15.000,     8.000,     0.000,     0.000,     0.000,     0.000,   2
 10598,'1 ',1,   1,  20,    15.000,     8.000,     0.000,     0.000,     0.000,     0.000,   2
 10599,'1 ',1,   1,  20,    15.000,     8.000,     0.000,     0.000,     0.000,     0.000,   2
 10600,'1 ',1,   1,  20,    15.000,     8.000,     0.000,     0.000,     0.000,     0.000,   2
 10601,'1 ',1,   1,  20,    15.000,     8.000,     0.000,     0.000,     0.000,     0.000,   2
 10602,'1 ',1,   1,  20,    10.000,     6.000,     0.000,     0.000,     0.000,     0.000,   2
 10603,'1 ',1,   1,  20,    10.000,     6.000,     0.000,     0.000,     0.000,     0.000,   2
 10604,'1 ',1,   1,  20,     6.000,     3.000,     0.000,     0.000,     0.000,     0.000,   2
 10605,'1 ',1,   1,  20,     2.000,     1.000,     0.000,     0.000,     0.000,     0.000,   2
 10606,'1 ',1,   1,  20,    10.000,     6.000,     0.000,     0.000,     0.000,     0.000,   2
 10607,'1 ',1,   1,  20,    10.000,     6.000,     0.000,     0.000,     0.000,     0.000,   2
 10608,'1 ',1,   1,  20,    10.000,     6.000,     0.000,     0.000,     0.000,     0.000,   2
 10614,'1 ',1,   1,  32,   240.000,    70.000,     0.000,     0.000,     0.000,     0.000,   2
 10619,'1 ',1,   1,  33,   106.000,    27.000,     0.000,     0.000,     0.000,     0.000,   2
 10622,'1 ',1,   1,  33,   118.000,    33.400,     0.000,     0.000,     0.000,     0.000,   2
 10623,'1 ',1,   1,  33,   132.000,    36.340,     0.000,     0.000,     0.000,     0.000,   2
 10624,'1 ',1,   1,  33,   114.000,    33.000,     0.000,     0.000,     0.000,     0.000,   2
 10625,'1 ',1,   1,  33,    75.000,    17.000,     0.000,     0.000,     0.000,     0.000,   2
 10626,'1 ',1,   1,  33,   100.000,    23.000,     0.000,     0.000,     0.000,     0.000,   2
 10630,'1 ',1,   1,  34,   101.000,    16.700,     0.000,     0.000,     0.000,     0.000,   2
 10634,'1 ',1,   1,  34,    34.000,     0.000,     0.000,     0.000,     0.000,     0.000,   2
 10635,'1 ',1,   1,  34,   135.000,    22.090,     0.000,     0.000,     0.000,     0.000,   2
 10636,'1 ',1,   1,  34,     7.000,     1.000,     0.000,     0.000,     0.000,     0.000,   2
 10637,'1 ',1,   1,  34,   113.000,    32.800,     0.000,     0.000,     0.000,     0.000,   2
 10638,'1 ',1,   1,  34,    21.000,     2.200,     0.000,     0.000,     0.000,     0.000,   2
 10639,'1 ',1,   1,  34,   124.000,    30.310,     0.000,     0.000,     0.000,     0.000,   2
 10640,'1 ',1,   1,  34,    71.000,    20.000,     0.000,     0.000,     0.000,     0.000,   2
 10643,'1 ',1,   1,  35,    83.000,    18.000,     0.000,     0.000,     0.000,     0.000,   2
 10645,'1 ',1,   1,  35,    41.000,     6.400,     0.000,     0.000,     0.000,     0.000,   2
 10646,'1 ',1,   1,  35,    66.000,    13.540,     0.000,     0.000,     0.000,     0.000,   2
 10647,'1 ',1,   1,  35,   115.000,    23.670,     0.000,     0.000,     0.000,     0.000,   2
 10648,'1 ',1,   1,  35,    93.000,    20.500,     0.000,     0.000,     0.000,     0.000,   2
 10649,'1 ',1,   1,  35,     4.000,     0.600,     0.000,     0.000,     0.000,     0.000,   2
 10650,'1 ',1,   1,  35,   120.000,    36.100,     0.000,     0.000,     0.000,     0.000,   2
 10651,'1 ',1,   1,  35,     5.000,     1.000,     0.000,     0.000,     0.000,     0.000,   2
 10654,'1 ',1,   1,  36,   132.000,    40.000,     0.000,     0.000,     0.000,     0.000,   2
 10658,'1 ',1,   1,  36,   135.000,    40.500,     0.000,     0.000,     0.000,     0.000,   2
 10659,'1 ',1,   1,  36,   118.000,    33.000,     0.000,     0.000,     0.000,     0.000,   2
 10660,'1 ',1,   1,  36,   120.000,    35.340,     0.000,     0.000,     0.000,     0.000,   2
 10661,'1 ',1,   1,  36,    18.000,     3.800,     0.000,     0.000,     0.000,     0.000,   2
 10662,'1 ',1,   1,  36,    17.000,     8.000,     0.000,     0.000,     0.000,     0.000,   2
 10663,'1 ',1,   1,  36,   125.000,    35.000,     0.000,     0.000,     0.000,     0.000,   2
 10664,'1 ',1,   1,  36,    42.000,    12.000,     0.000,     0.000,     0.000,     0.000,   2
 10665,'1 ',1,   1,  36,    81.000,    23.340,     0.000,     0.000,     0.000,     0.000,   2
...
0 / END OF LOAD DATA, BEGIN GENERATOR DATA
 10159,'1 ',   980.000,   104.571,   479.000,     0.000,1.01500,     0,   100.000,   0.00000,   1.00000,   0.00000,   0.00000,1.00000,1,  100.0,   990.000,     0.000,   1,1.0000
 10160,'1 ',   980.000,   104.571,   479.000,     0.000,1.01500,     0,   100.000,   0.00000,   1.00000,   0.00000,   0.00000,1.00000,1,  100.0,   990.000,     0.000,   1,1.0000
 10161,'1 ',   300.000,    44.520,   145.000,     0.000,1.01500,     0,   100.000,   0.00000,   1.00000,   0.00000,   0.00000,1.00000,1,  100.0,   300.000,     0.000,   1,1.0000
 10162,'1 ',   300.000,    44.520,   145.000,     0.000,1.01500,     0,   100.000,   0.00000,   1.00000,   0.00000,   0.00000,1.00000,1,  100.0,   300.000,     0.000,   1,1.0000
 10163,'1 ',   125.181,    66.318,   170.000,     0.000,1.01500,     0,   100.000,   0.00000,   1.00000,   0.00000,   0.00000,1.00000,1,  100.0,   350.000,     0.000,   1,1.0000
 10164,'1 ',   300.000,    75.860,   170.000,     0.000,1.01500,     0,   100.000,   0.00000,   1.00000,   0.00000,   0.00000,1.00000,1,  100.0,   350.000,     0.000,   1,1.0000
 10165,'1 ',   600.000,    34.341,   320.000,     0.000,1.00500,     0,   100.000,   0.00000,   1.00000,   0.00000,   0.00000,1.00000,1,  100.0,   660.000,     0.000,   1,1.0000
 10166,'1 ',   600.000,    16.808,   320.000,     0.000,1.00500,     0,   100.000,   0.00000,   1.00000,   0.00000,   0.00000,1.00000,1,  100.0,   660.000,     0.000,   1,1.0000
 10167,'1 ',   600.000,    34.341,   320.000,     0.000,1.00500,     0,   100.000,   0.00000,   1.00000,   0.00000,   0.00000,1.00000,1,  100.0,   660.000,     0.000,   1,1.0000
 10168,'1 ',   300.000,    49.167,   145.000,     0.000,1.02500,     0,   100.000,   0.00000,   1.00000,   0.00000,   0.00000,1.00000,1,  100.0,   300.000,     0.000,   1,1.0000
 10169,'1 ',   300.000,    49.167,   145.000,     0.000,1.02500,     0,   100.000,   0.00000,   1.00000,   0.00000,   0.00000,1.00000,1,  100.0,   300.000,     0.000,   1,1.0000
 10170,'1 ',   300.000,    49.167,   145.000,     0.000,1.02500,     0,   100.000,   0.00000,   1.00000,   0.00000,   0.00000,1.00000,1,  100.0,   300.000,     0.000,   1,1.0000
 10171,'1 ',   300.000,    81.440,   145.000,     0.000,1.03800,     0,   100.000,   0.00000,   1.00000,   0.00000,   0.00000,1.00000,1,  100.0,   300.000,     0.000,   1,1.0000
 10172,'1 ',   300.000,    49.255,   145.000,     0.000,1.02500,     0,   100.000,   0.00000,   1.00000,   0.00000,   0.00000,1.00000,1,  100.0,   300.000,     0.000,   1,1.0000
 10173,'1 ',   300.000,    49.255,   145.000,     0.000,1.02500,     0,   100.000,   0.00000,   1.00000,   0.00000,   0.00000,1.00000,1,  100.0,   300.000,     0.000,   1,1.0000
 10174,'1 ',   300.000,    49.255,   145.000,     0.000,1.02500,     0,   100.000,   0.00000,   1.00000,   0.00000,   0.00000,1.00000,1,  100.0,   300.000,     0.000,   1,1.0000
 10175,'1 ',   200.000,    49.373,   145.000,     0.000,1.03500,     0,   100.000,   0.00000,   1.00000,   0.00000,   0.00000,1.00000,1,  100.0,   300.000,     0.000,   1,1.0000
 10176,'1 ',   550.000,    60.000,   216.000,    60.000,1.00000,     0,   100.000,   0.00000,   1.00000,   0.00000,   0.00000,1.00000,1,  100.0,   600.000,     0.000,   1,1.0000
 10177,'1 ',   550.000,    60.000,   216.000,    60.000,1.00000,     0,   100.000,   0.00000,   1.00000,   0.00000,   0.00000,1.00000,1,  100.0,   600.000,     0.000,   1,1.0000
 10178,'1 ',   555.000,    53.233,   290.000,   -90.000,1.00000,     0,   100.000,   0.00000,   1.00000,   0.00000,   0.00000,1.00000,1,  100.0,   600.000,     0.000,   1,1.0000
 10179,'1 ',   555.000,    53.233,   290.000,   -90.000,1.00000,     0,   100.000,   0.00000,   1.00000,   0.00000,   0.00000,1.00000,1,  100.0,   600.000,     0.000,   1,1.0000
 10180,'1 ',   555.000,    53.233,   290.000,   -90.000,1.00000,     0,   100.000,   0.00000,   1.00000,   0.00000,   0.00000,1.00000,1,  100.0,   600.000,     0.000,   1,1.0000
 10181,'1 ',   250.000,   100.000,   100.000,     0.000,1.02000,     0,   100.000,   0.00000,   1.00000,   0.00000,   0.00000,1.00000,1,  100.0,   300.000,     0.000,   1,1.0000
 10182,'1 ',   250.000,   100.000,   100.000,     0.000,1.02000,     0,   100.000,   0.00000,   1.00000,   0.00000,   0.00000,1.00000,1,  100.0,   300.000,     0.000,   1,1.0000
 10183,'1 ',   600.000,    57.404,   150.000,     0.000,1.02000,     0,   100.000,   0.00000,   1.00000,   0.00000,   0.00000,1.00000,1,  100.0,   650.000,     0.000,   1,1.0000
 10184,'1 ',   600.000,    60.000,   150.000,    60.000,1.02000,     0,   100.000,   0.00000,   1.00000,   0.00000,   0.00000,1.00000,1,  100.0,   650.000,     0.000,   1,1.0000
 10185,'1 ',   500.000,    32.291,   260.000,     0.000,1.00800,     0,   100.000,   0.00000,   1.00000,   0.00000,   0.00000,1.00000,1,  100.0,   600.000,     0.000,   1,1.0000
 10186,'1 ',   520.000,     0.000,   200.000,     0.000,1.00000,     0,   100.000,   0.00000,   1.00000,   0.00000,   0.00000,1.00000,1,  100.0,   600.000,     0.000,   1,1.0000
 10187,'1 ',   520.000,     0.000,   200.000,     0.000,1.00000,     0,   100.000,   0.00000,   1.00000,   0.00000,   0.00000,1.00000,1,  100.0,   600.000,     0.000,   1,1.0000
 10188,'1 ',   850.000,    86.587,   452.000,     0.000,1.02000,     0,   100.000,   0.00000,   1.00000,   0.00000,   0.00000,1.00000,1,  100.0,  1000.000,     0.000,   1,1.0000
 10189,'1 ',   280.000,     0.000,   100.000,     0.000,1.00000,     0,   100.000,   0.00000,   1.00000,   0.00000,   0.00000,1.00000,1,  100.0,   300.000,     0.000,   1,1.0000
 10190,'1 ',   280.000,     0.000,   100.000,     0.000,1.00000,     0,   100.000,   0.00000,   1.00000,   0.00000,   0.00000,1.00000,1,  100.0,   300.000,     0.000,   1,1.0000
 10239,'1 ',   300.000,   152.235,   230.000,   -70.000,1.01000,     0,   100.000,   0.00000,   1.00000,   0.00000,   0.00000,1.00000,1,  100.0,   370.000,     0.000,   1,1.0000
 10240,'1 ',   300.000,   152.235,   230.000,   -70.000,1.01000,     0,   100.000,   0.00000,   1.00000,   0.00000,   0.00000,1.00000,1,  100.0,   370.000,     0.000,   1,1.0000
 10251,'1 ',   250.000,   169.073,   180.000,     0.000,1.01500,     0,   100.000,   0.00000,   1.00000,   0.00000,   0.00000,1.00000,1,  100.0,   300.000,     0.000,   1,1.0000
 10252,'1 ',   250.000,   169.073,   180.000,     0.000,1.01500,     0,   100.000,   0.00000,   1.00000,   0.00000,   0.00000,1.00000,1,  100.0,   300.000,     0.000,   1,1.0000
 10264,'1 ',   295.000,   129.016,   145.000,     0.000,1.01000,     0,   100.000,   0.00000,   1.00000,   0.00000,   0.00000,1.00000,1,  100.0,   300.000,     0.000,   1,1.0000
 10265,'1 ',   295.000,   129.016,   145.000,     0.000,1.01000,     0,   100.000,   0.00000,   1.00000,   0.00000,   0.00000,1.00000,1,  100.0,   300.000,     0.000,   1,1.0000
 10266,'1 ',   295.000,   135.399,   145.000,     0.000,1.01000,     0,   100.000,   0.00000,   1.00000,   0.00000,   0.00000,1.00000,1,  100.0,   300.000,     0.000,   1,1.0000
 10267,'1 ',   295.000,   135.399,   145.000,     0.000,1.01000,     0,   100.000,   0.00000,   1.00000,   0.00000,   0.00000,1.00000,1,  100.0,   300.000,     0.000,   1,1.0000
 10277,'1 ',   365.000,   157.745,   165.000,     0.000,1.00000,     0,   100.000,   0.00000,   1.00000,   0.00000,   0.00000,1.00000,1,  100.0,   370.000,     0.000,   1,1.0000
 10278,'1 ',   365.000,   157.745,   165.000,     0.000,1.00000,     0,   100.000,   0.00000,   1.00000,   0.00000,   0.00000,1.00000,1,  100.0,   370.000,     0.000,   1,1.0000
 10282,'1 ',   250.000,   145.000,   145.000,   -75.000,1.00000,     0,   100.000,   0.00000,   1.00000,   0.00000,   0.00000,1.00000,1,  100.0,   300.000,     0.000,   1,1.0000
 10283,'1 ',   250.000,   151.443,   169.000,   -75.000,1.00000,     0,   100.000,   0.00000,   1.00000,   0.00000,   0.00000,1.00000,1,  100.0,   300.000,     0.000,   1,1.0000
 10287,'1 ',   250.000,   145.000,   145.000,     0.000,1.01000,     0,   100.000,   0.00000,   1.00000,   0.00000,   0.00000,1.00000,1,  100.0,   300.000,     0.000,   1,1.0000
 10288,'1 ',   250.000,   145.000,   145.000,     0.000,1.00000,     0,   100.000,   0.00000,   1.00000,   0.00000,   0.00000,1.00000,1,  100.0,   300.000,     0.000,   1,1.0000
 10296,'1 ',   300.000,   165.000,   165.000,     0.000,1.01300,     0,   100.000,   0.00000,   1.00000,   0.00000,   0.00000,1.00000,1,  100.0,   370.000,     0.000,   1,1.0000
 10307,'1 ',   650.000,   222.571,   340.000,     0.000,0.98000,     0,   100.000,   0.00000,   1.00000,   0.00000,   0.00000,1.00000,1,  100.0,   700.000,     0.000,   1,1.0000
 10308,'1 ',   650.000,   222.571,   340.000,     0.000,0.98000,     0,   100.000,   0.00000,   1.00000,   0.00000,   0.00000,1.00000,1,  100.0,   700.000,     0.000,   1,1.0000
 10312,'1 ',   550.000,   216.137,   290.000,    60.000,1.00000,     0,   100.000,   0.00000,   1.00000,   0.00000,   0.00000,1.00000,1,  100.0,   600.000,     0.000,   1,1.0000
 10313,'1 ',   550.000,   216.137,   290.000,    60.000,1.00000,     0,   100.000,   0.00000,   1.00000,   0.00000,   0.00000,1.00000,1,  100.0,   600.000,     0.000,   1,1.0000
 10322,'1 ',   250.000,   100.000,   100.000,     0.000,1.02000,     0,   100.000,   0.00000,   1.00000,   0.00000,   0.00000,1.00000,1,  100.0,   300.000,     0.000,   1,1.0000
 10323,'1 ',   250.000,   100.000,   100.000,     0.000,1.02000,     0,   100.000,   0.00000,   1.00000,   0.00000,   0.00000,1.00000,1,  100.0,   300.000,     0.000,   1,1.0000
 10330,'1 ',   120.000,    -4.031,    60.000,   -25.000,0.99000,     0,   100.000,   0.00000,   1.00000,   0.00000,   0.00000,1.00000,1,  100.0,   125.000,     0.000,   1,1.0000
 10331,'1 ',   120.000,    -4.031,    60.000,   -25.000,0.99000,     0,   100.000,   0.00000,   1.00000,   0.00000,   0.00000,1.00000,1,  100.0,   125.000,     0.000,   1,1.0000
 10336,'1 ',   120.000,    18.839,    65.000,     0.000,1.00000,     0,   100.000,   0.00000,   1.00000,   0.00000,   0.00000,1.00000,1,  100.0,   135.000,     0.000,   1,1.0000
 10339,'1 ',   190.000,    28.610,    97.000,    20.000,0.97000,     0,   100.000,   0.00000,   1.00000,   0.00000,   0.00000,1.00000,1,  100.0,   200.000,     0.000,   1,1.0000
 10340,'1 ',   290.000,    42.201,   145.000,     0.000,0.97000,     0,   100.000,   0.00000,   1.00000,   0.00000,   0.00000,1.00000,1,  100.0,   300.000,     0.000,   1,1.0000
 10347,'1 ',   250.000,    56.775,   145.000,     0.000,0.98000,     0,   100.000,   0.00000,   1.00000,   0.00000,   0.00000,1.00000,1,  100.0,   300.000,     0.000,   1,1.0000
 10348,'1 ',   250.000,    56.775,   145.000,     0.000,0.98000,     0,   100.000,   0.00000,   1.00000,   0.00000,   0.00000,1.00000,1,  100.0,   300.000,     0.000,   1,1.0000
 10349,'1 ',   250.000,    56.775,   145.000,     0.000,0.98000,     0,   100.000,   0.00000,   1.00000,   0.00000,   0.00000,1.00000,1,  100.0,   300.000,     0.000,   1,1.0000
 10350,'1 ',   250.000,    56.775,   145.000,     0.000,0.98000,     0,   100.000,   0.00000,   1.00000,   0.00000,   0.00000,1.00000,1,  100.0,   300.000,     0.000,   1,1.0000
 10357,'1 ',   120.000,    60.000,    60.000,    10.000,1.00000,     0,   100.000,   0.00000,   1.00000,   0.00000,   0.00000,1.00000,1,  100.0,   125.000,     0.000,   1,1.0000
 10358,'1 ',   120.000,    60.000,    60.000,    10.000,1.00000,     0,   100.000,   0.00000,   1.00000,   0.00000,   0.00000,1.00000,1,  100.0,   125.000,     0.000,   1,1.0000
 10370,'1 ',   280.000,   150.264,   155.000,   -80.000,1.00000,     0,   100.000,   0.00000,   1.00000,   0.00000,   0.00000,1.00000,1,  100.0,   300.000,     0.000,   1,1.0000
 10371,'1 ',   280.000,   150.264,   155.000,   -80.000,1.00000,     0,   100.000,   0.00000,   1.00000,   0.00000,   0.00000,1.00000,1,  100.0,   300.000,     0.000,   1,1.0000
 10372,'1 ',   520.000,   225.395,   280.000,   -50.000,1.00000,     0,   100.000,   0.00000,   1.00000,   0.00000,   0.00000,1.00000,1,  100.0,   600.000,     0.000,   1,1.0000
 10383,'1 ',   520.000,   204.750,   260.000,     0.000,1.00000,     0,   100.000,   0.00000,   1.00000,   0.00000,   0.00000,1.00000,1,  100.0,   600.000,     0.000,   1,1.0000
 10384,'1 ',   520.000,   204.750,   260.000,     0.000,1.00000,     0,   100.000,   0.00000,   1.00000,   0.00000,   0.00000,1.00000,1,  100.0,   600.000,     0.000,   1,1.0000
 10389,'1 ',   520.000,   207.369,   260.000,     0.000,1.00000,     0,   100.000,   0.00000,   1.00000,   0.00000,   0.00000,1.00000,1,  100.0,   600.000,     0.000,   1,1.0000
 10390,'1 ',   520.000,   207.369,   260.000,     0.000,1.00000,     0,   100.000,   0.00000,   1.00000,   0.00000,   0.00000,1.00000,1,  100.0,   600.000,     0.000,   1,1.0000
 10394,'1 ',   100.000,    21.857,    60.000,   -30.000,0.99500,     0,   100.000,   0.00000,   1.00000,   0.00000,   0.00000,1.00000,1,  100.0,   125.000,     0.000,   1,1.0000
 10395,'1 ',   100.000,    22.647,    60.000,   -30.000,0.99500,     0,   100.000,   0.00000,   1.00000,   0.00000,   0.00000,1.00000,1,  100.0,   125.000,     0.000,   1,1.0000
 10396,'1 ',   100.000,    19.067,    65.000,   -25.000,0.99500,     0,   100.000,   0.00000,   1.00000,   0.00000,   0.00000,1.00000,1,  100.0,   135.000,     0.000,   1,1.0000
 10397,'1 ',   100.000,    19.067,    65.000,   -25.000,0.99500,     0,   100.000,   0.00000,   1.00000,   0.00000,   0.00000,1.00000,1,  100.0,   135.000,     0.000,   1,1.0000
 10405,'1 ',   360.000,    60.000,    60.000,     0.000,1.01000,     0,   100.000,   0.00000,   1.00000,   0.00000,   0.00000,1.00000,1,  100.0,   600.000,     0.000,   1,1.0000
 10414,'1 ',    80.000,     8.192,    56.000,     0.000,1.00000,     0,   100.000,   0.00000,   1.00000,   0.00000,   0.00000,1.00000,1,  100.0,   100.000,     0.000,   1,1.0000
 10415,'1 ',    50.000,     4.675,    34.000,     0.000,1.00000,     0,   100.000,   0.00000,   1.00000,   0.00000,   0.00000,1.00000,1,  100.0,    72.500,     0.000,   1,1.0000
 10416,'1 ',    50.000,     5.680,    53.000,   -30.000,1.00000,     0,   100.000,   0.00000,   1.00000,   0.00000,   0.00000,1.00000,1,  100.0,    85.000,     0.000,   1,1.0000
 10596,'1 ',   290.000,   137.997,   145.000,   -60.000,1.01500,     0,   100.000,   0.00000,   1.00000,   0.00000,   0.00000,1.00000,1,  100.0,   300.000,     0.000,   1,1.0000
 10597,'1 ',   290.000,   137.997,   145.000,   -60.000,1.01500,     0,   100.000,   0.00000,   1.00000,   0.00000,   0.00000,1.00000,1,  100.0,   300.000,     0.000,   1,1.0000
 10598,'1 ',   290.000,   137.997,   185.000,     0.000,1.01500,     0,   100.000,   0.00000,   1.00000,   0.00000,   0.00000,1.00000,1,  100.0,   300.000,     0.000,   1,1.0000
 10599,'1 ',   290.000,   137.997,   185.000,   -60.000,1.01500,     0,   100.000,   0.00000,   1.00000,   0.00000,   0.00000,1.00000,1,  100.0,   300.000,     0.000,   1,1.0000
 10600,'1 ',   290.000,   137.997,   160.000,     0.000,1.01500,     0,   100.000,   0.00000,   1.00000,   0.00000,   0.00000,1.00000,1,  100.0,   300.000,     0.000,   1,1.0000
 10601,'1 ',   290.000,   137.997,   154.000,   -60.000,1.01500,     0,   100.000,   0.00000,   1.00000,   0.00000,   0.00000,1.00000,1,  100.0,   300.000,     0.000,   1,1.0000
 10602,'1 ',   360.000,   165.000,   165.000,     0.000,1.00000,     0,   100.000,   0.00000,   1.00000,   0.00000,   0.00000,1.00000,1,  100.0,   370.000,     0.000,   1,1.0000
 10603,'1 ',   320.000,   163.473,   165.000,     0.000,1.00000,     0,   100.000,   0.00000,   1.00000,   0.00000,   0.00000,1.00000,1,  100.0,   370.000,     0.000,   1,1.0000
 10604,'1 ',   110.000,    60.461,    70.000,     0.000,1.00000,     0,   100.000,   0.00000,   1.00000,   0.00000,   0.00000,1.00000,1,  100.0,   120.000,     0.000,   1,1.0000
 10605,'1 ',    50.000,    32.489,    35.000,     0.000,1.00000,     0,   100.000,   0.00000,   1.00000,   0.00000,   0.00000,1.00000,1,  100.0,    60.000,     0.000,   1,1.0000
 10606,'1 ',   220.000,   100.000,   100.000,     0.000,1.00000,     0,   100.000,   0.00000,   1.00000,   0.00000,   0.00000,1.00000,1,  100.0,   370.000,     0.000,   1,1.0000
 10607,'1 ',   220.000,   100.000,   100.000,     0.000,1.00000,     0,   100.000,   0.00000,   1.00000,   0.00000,   0.00000,1.00000,1,  100.0,   370.000,     0.000,   1,1.0000
 10608,'1 ',   240.000,   127.387,   165.000,     0.000,1.00500,     0,   100.000,   0.00000,   1.00000,   0.00000,   0.00000,1.00000,1,  100.0,   370.000,     0.000,   1,1.0000
 10886,'1 ',   200.000,    12.171,    97.000,     0.000,1.05900,     0,   100.000,   0.00000,   1.00000,   0.00000,   0.00000,1.00000,1,  100.0,   200.000,     0.000,   1,1.0000
 10887,'1 ',   300.000,    50.216,   146.000,     0.000,1.05900,     0,   100.000,   0.00000,   1.00000,   0.00000,   0.00000,1.00000,1,  100.0,   300.000,     0.000,   1,1.0000
 10888,'1 ',   100.000,    18.213,    49.000,     0.000,1.03900,     0,   100.000,   0.00000,   1.00000,   0.00000,   0.00000,1.00000,1,  100.0,   100.000,     0.000,   1,1.0000
 10889,'1 ',   150.000,    71.672,    81.000,     0.000,1.01400,     0,   100.000,   0.00000,   1.00000,   0.00000,   0.00000,1.00000,1,  100.0,   150.000,     0.000,   1,1.0000
 10890,'1 ',   150.000,    25.518,    81.000,     0.000,1.05800,     0,   100.000,   0.00000,   1.00000,   0.00000,   0.00000,1.00000,1,  100.0,   150.000,     0.000,   1,1.0000
 10891,'1 ',   150.000,    18.197,    73.000,     0.000,1.04000,     0,   100.000,   0.00000,   1.00000,   0.00000,   0.00000,1.00000,1,  100.0,   150.000,     0.000,   1,1.0000
 10892,'1 ',     0.000,     0.000,     0.000,     0.000,1.05100,     0,   100.000,   0.00000,   1.00000,   0.00000,   0.00000,1.00000,1,  100.0,     0.000,     0.000,   1,1.0000
 10893,'1 ',   200.000,    18.677,    86.000,     0.000,1.05500,     0,   100.000,   0.00000,   1.00000,   0.00000,   0.00000,1.00000,1,  100.0,   200.000,     0.000,   1,1.0000
 10894,'1 ',   150.000,    31.718,    81.000,     0.000,1.04500,     0,   100.000,   0.00000,   1.00000,   0.00000,   0.00000,1.00000,1,  100.0,   150.000,     0.000,   1,1.0000
 10895,'1 ',   150.000,    56.897,    81.000,     0.000,1.04900,     0,   100.000,   0.00000,   1.00000,   0.00000,   0.00000,1.00000,1,  100.0,   150.000,     0.000,   1,1.0000
 10896,'1 ',   200.000,    42.141,    97.000,     0.000,1.04000,     0,   100.000,   0.00000,   1.00000,   0.00000,   0.00000,1.00000,1,  100.0,   200.000,     0.000,   1,1.0000
 10897,'1 ',   250.000,     0.901,   122.000,     0.000,1.05900,     0,   100.000,   0.00000,   1.00000,   0.00000,   0.00000,1.00000,1,  100.0,   250.000,     0.000,   1,1.0000
 20158,'1 ',   980.000,   173.900,   435.000,     0.000,1.01500,     0,   100.000,   0.00000,   1.00000,   0.00000,   0.00000,1.00000,1,  100.0,   990.000,     0.000,   1,1.0000
 20420,'1 ',   980.000,    67.944,   435.000,     0.000,1.01500,     0,   100.000,   0.00000,   1.00000,   0.00000,   0.00000,1.00000,1,  100.0,   990.000,     0.000,   1,1.0000
 20434,'1 ',   260.000,     1.517,   194.000,     0.000,1.00000,     0,   100.000,   0.00000,   1.00000,   0.00000,   0.00000,1.00000,1,  100.0,   313.000,     0.000,   1,1.0000
 20435,'1 ',   260.000,     1.517,   194.000,     0.000,1.00000,     0,   100.000,   0.00000,   1.00000,   0.00000,   0.00000,1.00000,1,  100.0,   313.000,     0.000,   1,1.0000
 20436,'1 ',   260.000,     1.517,   194.000,     0.000,1.00000,     0,   100.000,   0.00000,   1.00000,   0.00000,   0.00000,1.00000,1,  100.0,   313.000,     0.000,   1,1.0000
 20437,'1 ',   260.000,     1.517,   194.000,     0.000,1.00000,     0,   100.000,   0.00000,   1.00000,   0.00000,   0.00000,1.00000,1,  100.0,   313.000,     0.000,   1,1.0000
 20438,'1 ',   260.000,     1.517,   194.000,     0.000,1.00000,     0,   100.000,   0.00000,   1.00000,   0.00000,   0.00000,1.00000,1,  100.0,   313.000,     0.000,   1,1.0000
 20439,'1 ',   260.000,     1.517,   194.000,     0.000,1.00000,     0,   100.000,   0.00000,   1.00000,   0.00000,   0.00000,1.00000,1,  100.0,   313.000,     0.000,   1,1.0000
 20440,'1 ',   126.610,     0.000,   263.000,     0.000,1.00000,     0,   100.000,   0.00000,   1.00000,   0.00000,   0.00000,1.00000,1,  100.0,   350.000,     0.000,   1,1.0000
 20441,'1 ',   200.000,     0.000,   263.000,     0.000,1.00000,     0,   100.000,   0.00000,   1.00000,   0.00000,   0.00000,1.00000,1,  100.0,   350.000,     0.000,   1,1.0000
 20442,'1 ',   200.000,     0.000,   263.000,     0.000,1.00000,     0,   100.000,   0.00000,   1.00000,   0.00000,   0.00000,1.00000,1,  100.0,   350.000,     0.000,   1,1.0000
 20443,'1 ',   200.000,     0.000,   263.000,     0.000,1.00000,     0,   100.000,   0.00000,   1.00000,   0.00000,   0.00000,1.00000,1,  100.0,   350.000,     0.000,   1,1.0000
 20444,'1 ',   460.000,     0.000,   443.000,     0.000,1.00000,     0,   100.000,   0.00000,   1.00000,   0.00000,   0.00000,1.00000,1,  100.0,   677.000,     0.000,   1,1.0000
 20445,'1 ',   460.000,     0.000,   443.000,     0.000,1.00000,     0,   100.000,   0.00000,   1.00000,   0.00000,   0.00000,1.00000,1,  100.0,   677.000,     0.000,   1,1.0000
 20446,'1 ',   460.000,     0.000,   443.000,     0.000,1.00000,     0,   100.000,   0.00000,   1.00000,   0.00000,   0.00000,1.00000,1,  100.0,   677.000,     0.000,   1,1.0000
 20447,'1 ',   460.000,     0.000,   443.000,     0.000,1.00000,     0,   100.000,   0.00000,   1.00000,   0.00000,   0.00000,1.00000,1,  100.0,   677.000,     0.000,   1,1.0000
 30058,'1 ',   600.000,   134.500,   165.000,   -80.000,1.00000,     0,   100.000,   0.00000,   1.00000,   0.00000,   0.00000,1.00000,1,  100.0,   600.000,     0.000,   1,1.0000
 30065,'1 ',   600.000,   -42.277,   125.000,   -80.000,1.00000,     0,   100.000,   0.00000,   1.00000,   0.00000,   0.00000,1.00000,1,  100.0,   600.000,     0.000,   1,1.0000
 30117,'1 ',   276.315,    -6.339,   100.000,  -100.000,1.00000,     0,   100.000,   0.00000,   1.00000,   0.00000,   0.00000,1.00000,1,  100.0,   300.000,     0.000,   1,1.0000
 30118,'1 ',   300.000,    -3.292,   100.000,  -100.000,1.00000,     0,   100.000,   0.00000,   1.00000,   0.00000,   0.00000,1.00000,1,  100.0,   300.000,     0.000,   1,1.0000
 30119,'1 ',   300.000,    -3.195,   100.000,  -100.000,1.00000,     0,   100.000,   0.00000,   1.00000,   0.00000,   0.00000,1.00000,1,  100.0,   300.000,     0.000,   1,1.0000
 30120,'1 ',   300.000,    -3.195,   100.000,  -100.000,1.00000,     0,   100.000,   0.00000,   1.00000,   0.00000,   0.00000,1.00000,1,  100.0,   300.000,     0.000,   1,1.0000
 30121,'1 ',   200.000,    -1.106,   150.000,   -40.000,0.97000,     0,   100.000,   0.00000,   1.00000,   0.00000,   0.00000,1.00000,1,  100.0,   330.000,     0.000,   1,1.0000
 30123,'1 ',   160.000,    84.634,   150.000,   -50.000,1.00000,     0,   100.000,   0.00000,   1.00000,   0.00000,   0.00000,1.00000,1,  100.0,   300.000,     0.000,   1,1.0000
 30124,'1 ',   500.000,   150.000,   150.000,   150.000,1.00000,     0,   100.000,   0.00000,   1.00000,   0.00000,   0.00000,1.00000,1,  100.0,   600.000,     0.000,   1,1.0000
...